/*--------------------------------*- C++ -*----------------------------------*\
| =========                 |                                                 |
| \\      /  F ield         | OpenFOAM: The Open Source CFD Toolbox           |
|  \\    /   O peration     | Version:  v2406                                 |
|   \\  /    A nd           | Website:  www.openfoam.com                      |
|    \\/     M anipulation  |                                                 |
\*---------------------------------------------------------------------------*/
FoamFile
{
    version     2.0;
    format      ascii;
    class       volScalarField;
    object      alphat;
}
// * * * * * * * * * * * * * * * * * * * * * * * * * * * * * * * * * * * * * //

dimensions      [1 -1 -1 0 0 0 0];

internalField   uniform 6.66e-5; // Initially zero, turbulence model will compute

boundaryField
{
    left
    {
        type            symmetryPlane;
    }
    right
    {
        type            calculated;
        value           $internalField;
    }
    front
    {
        type            calculated;
        value           $internalField;
    }
    back
    {
        type            calculated;
        value           $internalField;
    }
    bottom_wall
    {
        type            compressible::alphatWallFunction;
        Prt             0.85;
        value           $internalField;        
    }
    top
    {
        type            calculated;
        value           $internalField;
    }
    nozzle_27mm_5mm_m
    {
        type            compressible::alphatWallFunction;
        Prt             0.85;
        value           $internalField;        
    }
    nozzle
    {
        type            calculated;
        value           $internalField;
    }
    box_shell_m
    {
        type            compressible::alphatWallFunction;
        Prt             0.85;
        value           $internalField;        
    }
}
// ************************************************************************* //
